data/irish_network/psse/SummerNightValley2019.raw
0,   100.00          / PSS/E-30.3    MON, NOV 18 2013  18:10
AITYTFS Summer Night Valley 2019

    10,'F_M         ',  38.0000,1,     0.000,     0.000,   2,   1,1.03583, -12.2103,   2
    11,'FMN LOOP    ',  38.0000,1,     0.000,     0.000,   2,   1,1.03444, -11.4838,   2
    12,'BEDFORD     ',  38.0000,1,     0.000,     0.000,   1,   1,1.02696, -11.8240,   2
    13,'M_R         ',  38.0000,1,     0.000,     0.000,   1,   1,1.02986, -11.7412,   2
    14,'F_I         ',  38.0000,1,     0.000,     0.000,   2,   1,1.04754, -12.5186,   2
    15,'I_M         ',  38.0000,1,     0.000,     0.000,   2,   1,1.02357, -12.1879,   2
  1021,'ARDNACRU    ', 110.0000,1,     0.000,     0.000,   4,   1,1.00038,  -6.7843,   1
  1041,'AGHADA      ', 110.0000,1,     0.000,     0.000,   3,   1,0.99984,  -6.4679,   1
  1042,'AGHADA      ', 220.0000,1,     0.000,     0.000,   3,   1,1.00000,  -5.7478,   1
  1052,'AGHADA_B    ', 220.0000,1,     0.000,     0.000,   3,   1,0.99580,  -5.4253,   1
  1061,'ARIGNA      ', 110.0000,1,     0.000,     0.000,   9,   1,0.99901,  -5.1824,   2
  1062,'AGH_AT14    ', 220.0000,1,     0.000,     0.000,   3,   1,1.00000,  -5.7478,   1
  1071,'AGANNYGA    ', 110.0000,1,     0.000,     0.000,   4,   1,1.00229,  -4.7759,   1
  1072,'AGHT2102    ', 220.0000,1,     0.000,     0.000,   3,   1,1.00000,  -5.7514,   1
  1081,'AHANE       ', 110.0000,1,     0.000,     0.000,   7,   1,1.00215,  -6.7082,   2
  1091,'ADAMSTOW    ', 110.0000,1,     0.000,     0.000,   1,   1,0.99403, -12.3284,   2
  1101,'ANNER       ', 110.0000,1,     0.000,     0.000,   5,   1,0.99669,  -7.6909,   5
  1121,'ARKLOW      ', 110.0000,1,     0.000,     0.000,   6,   1,1.00768,  -8.8104,   1
  1122,'ARKLOW      ', 220.0000,1,     0.000,     0.000,   6,   1,1.00344,  -8.7326,   1
  1131,'ATHEA       ', 110.0000,1,     0.000,     0.000,   7,   1,0.99988,  -2.5124,   4
  1141,'ATHLONE     ', 110.0000,1,     0.000,     0.000,   9,   1,0.99704,  -6.1016,   1
  1151,'ATHEA-2     ', 110.0000,1,     0.000,     0.000,   7,   1,0.99988,  -2.5124,   1
  1161,'AUGHINIS    ', 110.0000,1,     0.000,     0.000,   7,   1,1.00000,  -5.5143,   1
  1181,'ARVA        ', 110.0000,1,     0.000,     0.000,  10,   1,0.99587,  -7.7552,   1
  1201,'ARTANE      ', 110.0000,1,     0.000,     0.000,   1,   1,1.01581, -10.5486,   2
  1211,'BALLYVOU    ', 110.0000,1,     0.000,     0.000,   3,   1,1.00089,  -2.7678,   1
  1212,'BALLYVOU    ', 220.0000,1,     0.000,     0.000,   3,   1,1.01061,  -3.8207,   1
  1221,'ATHY        ', 110.0000,1,     0.000,     0.000,   8,   1,1.01871,  -9.1085,   1
  1231,'BALLYWAT    ', 110.0000,1,     0.000,     0.000,   6,   1,1.00834,  -7.6638,   4
  1251,'BOOLTIAG    ', 110.0000,1,     0.000,     0.000,   4,   1,1.00919,  -5.9859,   2
  1271,'BALTRASN    ', 110.0000,1,     0.000,     0.000,  10,   1,1.00423, -10.3959,   1
  1281,'BALLYLIC    ', 110.0000,1,     0.000,     0.000,   3,   1,1.00000,  -5.2081,   2
  1301,'BALLYBEG    ', 110.0000,1,     0.000,     0.000,   6,   1,1.00424,  -9.2748,   1
  1311,'CORDAL      ', 110.0000,1,     0.000,     0.000,   3,   1,1.01999,  -2.8833,   1
  1321,'BLAKE       ', 110.0000,1,     0.000,     0.000,   8,   1,1.00098,  -9.6486,   2
  1341,'BINBANE     ', 110.0000,1,     0.000,     0.000,   9,   1,0.99454,  -3.2017,   2
  1351,'BARODA      ', 110.0000,1,     0.000,     0.000,   8,   1,0.99832,  -9.5946,   1
  1361,'BALLYDIN    ', 110.0000,1,     0.000,     0.000,   5,   1,0.99936,  -7.9510,   1
  1381,'BARNAHEL    ', 110.0000,1,     0.000,     0.000,   3,   1,0.99786,  -6.6151,   1
  1391,'BARNAHEL    ', 110.0000,1,     0.000,     0.000,   3,   1,0.99505,  -6.6985,   1
  1401,'BELLACOR    ', 110.0000,1,     0.000,     0.000,   9,   1,1.01294,  -4.9457,   1
  1421,'BLACKROC    ', 110.0000,1,     0.000,     0.000,   1,   1,1.00110, -10.5701,   2
  1431,'BALLYRAG    ', 110.0000,1,     0.000,     0.000,   6,   1,1.01377,  -9.3143,   1
  1441,'BANDON      ', 110.0000,1,     0.000,     0.000,   3,   1,0.99037,  -6.5939,   1
  1451,'CLOGHRAN    ', 110.0000,1,     0.000,     0.000,   1,   1,1.00201, -10.7472,   1
  1461,'BARRYMOR    ', 110.0000,1,     0.000,     0.000,   5,   1,0.99881,  -6.5622,   2
  1471,'BELCAMP     ', 110.0000,1,     0.000,     0.000,   1,   1,1.01759, -10.8399,   2
  1472,'BELCAMP     ', 220.0000,1,     0.000,     0.000,   1,   1,1.01370,  -9.6437,   2
  1481,'BUTLERST    ', 110.0000,1,     0.000,     0.000,   5,   1,1.00354,  -8.6362,   1
  1492,'BALLAKEL    ', 220.0000,1,     0.000,     0.000,  10,   1,1.01208,  -8.6304,   1
  1501,'BRINNY      ', 110.0000,1,     0.000,     0.000,   3,   1,0.99020,  -6.6039,   5
  1511,'KNOCKNAG    ', 110.0000,1,     0.000,     0.000,   7,   1,1.00000,  -2.1908,   1
  1541,'BANOGE      ', 110.0000,1,     0.000,     0.000,   6,   1,1.00675,  -8.4117,   1
  1551,'BOGGERAG    ', 110.0000,1,     0.000,     0.000,   3,   1,1.00000,  -1.4755,   1
  1571,'ARDNAGAP    ', 110.0000,1,     0.000,     0.000,   9,   1,0.99099,  -2.8090,   2
  1581,'CABRA       ', 110.0000,1,     0.000,     0.000,   1,   1,1.01569, -10.5629,   2
  1601,'CLASHAVO    ', 110.0000,1,     0.000,     0.000,   3,   1,1.00096,  -5.9987,   1
  1602,'CLASHAVO    ', 220.0000,1,     0.000,     0.000,   3,   1,1.00673,  -4.3086,   1
  1611,'CLONKEEN    ', 110.0000,1,     0.000,     0.000,   7,   1,1.00234,  -6.2073,   1
  1621,'COOLROE     ', 110.0000,1,     0.000,     0.000,   3,   1,0.99755,  -6.6709,   1
  1631,'CORDERRY    ', 110.0000,1,     0.000,     0.000,   9,   1,1.00155,  -4.5566,   1
  1641,'CASHLA      ', 110.0000,1,     0.000,     0.000,   9,   1,1.01639,  -5.9519,   1
  1642,'CASHLA      ', 220.0000,1,     0.000,     0.000,   9,   1,1.02144,  -6.1396,   1
  1651,'CLAHANE     ', 110.0000,1,     0.000,     0.000,   7,   1,1.00714,  -5.8477,   1
  1661,'CASTLEBA    ', 110.0000,1,     0.000,     0.000,   9,   1,1.03000,  -5.6751,   1
  1681,'CARRIGAD    ', 110.0000,1,     0.000,     0.000,   3,   1,0.99905,  -6.2066,   1
  1691,'CENTRAL     ', 110.0000,1,     0.000,     0.000,   1,   1,1.00121, -10.5222,   1
  1701,'CATH_FAL    ', 110.0000,1,     0.000,     0.000,   9,   1,0.99780,  -3.4044,   1
  1711,'CROMCAST    ', 110.0000,1,     0.000,     0.000,   1,   1,1.01733, -10.8862,   1
  1721,'CAHIR       ', 110.0000,1,     0.000,     0.000,   5,   1,0.99904,  -6.8347,   1
  1731,'CROMCAST    ', 110.0000,1,     0.000,     0.000,   1,   1,1.01733, -10.8862,   1
  1741,'CARRICKM    ', 110.0000,1,     0.000,     0.000,   2,   1,1.00096, -10.5012,   1
  1742,'CARRICKM    ', 220.0000,1,     0.000,     0.000,   2,   1,1.00022,  -9.2176,   1
  1761,'CLIFF       ', 110.0000,1,     0.000,     0.000,   9,   1,0.99782,  -3.4047,   1
  1781,'CASTLEFA    ', 110.0000,1,     0.000,     0.000,   7,   1,0.99962,  -5.5350,   5
  1791,'BRACKLON    ', 110.0000,1,     0.000,     0.000,   8,   1,1.00193,  -9.0434,   1
  1801,'COOKSTOW    ', 110.0000,1,     0.000,     0.000,   1,   1,0.99993,  -9.8427,   2
  1821,'CLOON       ', 110.0000,1,     0.000,     0.000,   9,   1,1.01495,  -5.9176,   1
  1831,'SCREEB      ', 110.0000,1,     0.000,     0.000,   9,   1,1.01489,  -6.1493,   2
  1841,'CRANE       ', 110.0000,1,     0.000,     0.000,   6,   1,1.00723,  -7.8821,   1
  1851,'CHERRYWO    ', 110.0000,1,     0.000,     0.000,   2,   1,0.99927, -10.6043,   1
  1861,'CARICKON    ', 110.0000,1,     0.000,     0.000,   9,   1,0.99995,  -6.1836,   1
  1871,'COLLEGE     ', 110.0000,1,     0.000,     0.000,   2,   1,1.00383, -10.5881,   1
  1881,'CHARLEVI    ', 110.0000,1,     0.000,     0.000,   3,   1,0.99673,  -7.0430,   1
  1891,'CAULSTOW    ', 110.0000,1,     0.000,     0.000,  10,   1,1.00291, -10.2667,   1
  1901,'CARLOW      ', 110.0000,1,     0.000,     0.000,   6,   1,1.02383,  -9.2744,   1
  1911,'CUILLEEN    ', 110.0000,1,     0.000,     0.000,   9,   1,0.99708,  -6.1026,   1
  1921,'COW CROS    ', 110.0000,1,     0.000,     0.000,   3,   1,0.99824,  -6.6419,   1
  1931,'CUNGHILL    ', 110.0000,1,     0.000,     0.000,   9,   1,1.00143,  -4.1812,   4
  1941,'CUSHALIN    ', 110.0000,1,     0.000,     0.000,   8,   1,1.00000,  -6.9684,   1
  1951,'CARROWBE    ', 110.0000,1,     0.000,     0.000,   9,   1,1.02863,  -6.0375,   1
  1961,'CASTLEVI    ', 110.0000,1,     0.000,     0.000,   3,   1,0.99830,  -6.7119,   1
  1971,'COOMAGEA    ', 110.0000,1,     0.000,     0.000,   7,   1,1.00000,  -1.2344,   4
  1981,'CORRACL     ', 110.0000,1,     0.000,     0.000,   9,  19,0.98905,  -6.7423,   1
  1991,'CASTLEDO    ', 110.0000,1,     0.000,     0.000,   6,   1,1.00587,  -7.6068,   1
  2001,'CULLENAG    ', 110.0000,1,     0.000,     0.000,   5,   1,1.00375,  -8.3965,   1
  2002,'CULLENAG    ', 220.0000,1,     0.000,     0.000,   5,   1,1.00517,  -7.9479,   1
  2011,'KNOCKNAG    ', 110.0000,1,     0.000,     0.000,   3,   1,0.99905,  -6.2066,   1
  2021,'CITY WES    ', 110.0000,1,     0.000,     0.000,   1,   1,0.99196, -12.6098,   2
  2041,'CORDUFF     ', 110.0000,1,     0.000,     0.000,   2,   1,1.00411, -10.5335,   1
  2042,'CORDUFF     ', 220.0000,1,     0.000,     0.000,   2,   1,1.01136,  -9.5050,   1
  2051,'BLACKPOO    ', 110.0000,1,     0.000,     0.000,   3,   1,0.99707,  -6.8689,   1
  2052,'CORDUFFB    ', 220.0000,1,     0.000,     0.000,   2,   1,1.01136,  -9.5050,   1
  2081,'DUNKETTL    ', 110.0000,4,     0.000,     0.000,   3,   1,1.00000,   0.0000,   5
  2090,'WEST GAL    ', 110.0000,1,     0.000,     0.000,   9,   1,1.00601,  -4.3761,   1
  2091,'WEST GAL    ', 110.0000,1,     0.000,     0.000,   9,   1,1.01663,  -5.9794,   1
  2101,'DUNDALK     ', 110.0000,1,     0.000,     0.000,  10,   1,1.01653,  -9.4109,   2
  2111,'UGOOL       ', 110.0000,1,     0.000,     0.000,   9,   1,1.00000,  -3.6297,   1
  2121,'DRUMLINE    ', 110.0000,1,     0.000,     0.000,   4,   1,0.99983,  -6.6891,   1
  2131,'DROMADA     ', 110.0000,1,     0.000,     0.000,   3,   1,1.00000,  -2.4139,   1
  2141,'DUNGARVA    ', 110.0000,1,     0.000,     0.000,   5,   1,1.00152,  -8.1489,   1
  2161,'DOON        ', 110.0000,1,     0.000,     0.000,   5,   1,0.99745,  -7.6579,   1
  2181,'DRYBRIDG    ', 110.0000,1,     0.000,     0.000,  10,   1,1.00529, -10.1102,   1
  2202,'DUNSTOWN    ', 220.0000,1,     0.000,     0.000,   2,   1,1.00872,  -9.7538,   1
  2204,'DUNSTOWN    ', 380.0000,1,     0.000,     0.000,   2,   1,1.02051,  -8.2976,   1
  2221,'DUNMANWA    ', 110.0000,1,     0.000,     0.000,   3,   1,0.99528,  -5.8907,   1
  2231,'DERRYBRI    ', 110.0000,1,     0.000,     0.000,   4,   1,1.00284,  -4.3237,   2
  2241,'DALLOW      ', 110.0000,1,     0.000,     0.000,   5,   1,1.00051,  -6.2881,   2
  2251,'DARDISTO    ', 110.0000,1,     0.000,     0.000,   1,   1,1.01739, -10.8858,   2
  2261,'DERRYIRO    ', 110.0000,1,     0.000,     0.000,   8,   1,0.99803,  -9.0482,   1
  2281,'DALTON      ', 110.0000,1,     0.000,     0.000,   9,   1,1.02698,  -5.5476,   1
  2301,'DUNFIRTH    ', 110.0000,1,     0.000,     0.000,   8,   1,1.00092,  -9.9005,   2
  2321,'DRUMKEEN    ', 110.0000,1,     0.000,     0.000,   9,   1,1.00437,  -1.3797,   1
  2361,'ENNIS       ', 110.0000,1,     0.000,     0.000,   4,   1,1.00249,  -6.2719,   1
  2391,'KILL HIL    ', 110.0000,1,     0.000,     0.000,   5,   1,1.00080,  -5.8472,   1
  2401,'MOUNTLUC    ', 110.0000,1,     0.000,     0.000,   8,   1,1.00000,  -7.0855,   1
  2411,'KNOCKMUL    ', 110.0000,1,     0.000,     0.000,   6,   1,1.00434,  -8.7130,   1
  2481,'FASS EAS    ', 110.0000,1,     0.000,     0.000,   2,   1,0.99809,  -9.8837,   2
  2491,'FASS WES    ', 110.0000,1,     0.000,     0.000,   2,   1,0.99816,  -9.8790,   2
  2521,'FLAGFORD    ', 110.0000,1,     0.000,     0.000,   9,   1,1.00022,  -6.1799,   1
  2522,'FLAGFORD    ', 220.0000,1,     0.000,     0.000,   9,   1,1.01320,  -6.4358,   1
  2541,'FRN ST A    ', 110.0000,1,     0.000,     0.000,   1,   1,1.00642, -10.0526,   2
  2551,'FRN ST B    ', 110.0000,1,     0.000,     0.000,   1,   1,1.00701, -11.0657,   2
  2561,'FIN_URBA    ', 110.0000,1,     0.000,     0.000,   2,   1,1.01587, -10.4863,   2
  2562,'FINGLAS     ', 220.0000,1,     0.000,     0.000,   2,   1,1.01191,  -9.5092,   1
  2563,'FINGLAS2    ', 220.0000,1,     0.000,     0.000,   2,   1,1.01191,  -9.5092,   1
  2571,'FIN_RURA    ', 110.0000,1,     0.000,     0.000,   2,   1,1.01727, -10.7957,   2
  2581,'KILDONAN    ', 110.0000,1,     0.000,     0.000,   2,   1,1.00321, -10.6628,   2
  2671,'GARVAGH     ', 110.0000,1,     0.000,     0.000,   9,   1,1.00100,  -4.2981,   4
  2681,'GILRA       ', 110.0000,1,     0.000,     0.000,   9,   1,0.99726,  -6.3670,   2
  2701,'GLASMORE    ', 110.0000,1,     0.000,     0.000,   1,   1,1.01488, -11.2799,   2
  2721,'GRIFFINR    ', 110.0000,1,     0.000,     0.000,   2,   1,1.00055, -10.1932,   2
  2731,'GLANLEE     ', 110.0000,1,     0.000,     0.000,   7,   1,0.99983,  -1.2119,   4
  2741,'GREAT IS    ', 110.0000,1,     0.000,     0.000,   6,   1,1.00561,  -8.5992,   1
  2742,'GREAT IS    ', 220.0000,1,     0.000,     0.000,   6,   1,1.00613,  -8.2762,   1
  2761,'GRANGE      ', 110.0000,1,     0.000,     0.000,   1,   1,1.01727, -10.8939,   2
  2771,'GARROW      ', 110.0000,1,     0.000,     0.000,   7,   1,1.00000,  -1.9937,   7
  2780,'GALWAY      ', 110.0000,1,     0.000,     0.000,   9,   1,1.01543,  -5.8048,   1
  2781,'GALWAY      ', 110.0000,1,     0.000,     0.000,   9,   1,1.01543,  -5.8048,   1
  2801,'GOLAGH      ', 110.0000,1,     0.000,     0.000,   9,   1,0.99896,  -2.1221,   4
  2821,'GORTAWEE    ', 110.0000,1,     0.000,     0.000,   9,   1,0.98760,  -7.2816,   1
  2841,'GORMAN      ', 110.0000,1,     0.000,     0.000,  10,   1,1.00435,  -9.9446,   1
  2842,'GORMAN      ', 220.0000,1,     0.000,     0.000,  10,   1,1.00906,  -9.3813,   1
  2852,'GLANAGOW    ', 220.0000,1,     0.000,     0.000,   3,   1,0.99536,  -5.4000,   1
  2861,'GRANGE C    ', 110.0000,1,     0.000,     0.000,   1,   1,0.99416, -12.3170,   2
  2870,'CLOGHER     ', 110.0000,1,     0.000,     0.000,   9,   1,0.99967,  -2.2589,   1
  2871,'CLOGHER     ', 110.0000,1,     0.000,     0.000,   9,   1,0.99967,  -2.2589,   1
  2881,'GLENLARA    ', 110.0000,1,     0.000,     0.000,   3,   1,0.99701,  -6.8315,   2
  2941,'HAROLDS     ', 110.0000,1,     0.000,     0.000,   1,   1,1.00651, -10.0404,   2
  2951,'HEUSTON     ', 110.0000,1,     0.000,     0.000,   1,   1,1.00709, -11.0567,   2
  2962,'HUNTSTOW    ', 220.0000,1,     0.000,     0.000,   2,   1,1.01143,  -9.4585,   4
  2972,'HUNTSTOW    ', 220.0000,1,     0.000,     0.000,   2,   1,1.01147,  -9.5057,   4
  2981,'HARTNETT    ', 110.0000,1,     0.000,     0.000,   3,   1,0.99888,  -6.1743,   2
  3061,'INISCARR    ', 110.0000,1,     0.000,     0.000,   3,   1,0.99779,  -6.6038,   1
  3081,'INCH_CIT    ', 110.0000,1,     0.000,     0.000,   2,   1,1.00710, -11.0347,   2
  3082,'INCHICOR    ', 220.0000,1,     0.000,     0.000,   2,   1,1.00622,  -9.8759,   1
  3091,'INCH_COU    ', 110.0000,1,     0.000,     0.000,   2,   1,0.99682, -12.1735,   2
  3101,'IKERRIN     ', 110.0000,1,     0.000,     0.000,   5,   1,0.99938,  -5.5316,   2
  3122,'IRISHTOW    ', 220.0000,1,     0.000,     0.000,   2,   1,1.00160,  -9.2164,   1
  3190,'NORTH KE    ', 110.0000,1,     0.000,     0.000,   7,   1,1.00623,  -6.1332,   1
  3191,'NORTH KE    ', 110.0000,1,     0.000,     0.000,   7,   1,1.00304,  -3.2051,   1
  3192,'NORTH KE    ', 220.0000,1,     0.000,     0.000,   7,   1,1.02030,  -4.8337,   1
  3194,'NORTH KE    ', 380.0000,1,     0.000,     0.000,   7,   1,1.02365,  -5.2023,   1
  3200,'KNOCKRAH    ', 110.0000,1,     0.000,     0.000,   3,   1,1.00093,  -5.7875,   1
  3201,'KNOCKRAH    ', 110.0000,1,     0.000,     0.000,   3,   1,0.99948,  -6.6249,   1
  3202,'KNOCKRAH    ', 220.0000,1,     0.000,     0.000,   3,   1,1.00093,  -5.7875,   1
  3203,'KNOCKRAH    ', 220.0000,1,     0.000,     0.000,   3,   1,1.00093,  -5.7875,   1
  3209,'KNOCKRAH    ', 110.0000,1,     0.000,     0.000,   3,   1,0.99948,  -6.6249,   1
  3211,'KNOCKAVA    ', 110.0000,1,     0.000,     0.000,   4,   1,1.00235,  -4.3967,   1
  3221,'KILBARRY    ', 110.0000,1,     0.000,     0.000,   3,   1,0.99708,  -6.8681,   1
  3241,'KILTEEL     ', 110.0000,1,     0.000,     0.000,   8,   1,0.99728, -10.0630,   2
  3251,'REAMORE     ', 110.0000,1,     0.000,     0.000,   7,   1,1.00691,  -5.7222,   1
  3261,'KILKENNY    ', 110.0000,1,     0.000,     0.000,   6,   1,1.01487,  -9.4452,   1
  3281,'KILLONAN    ', 110.0000,1,     0.000,     0.000,   7,   1,1.00217,  -6.7026,   1
  3282,'KILLONAN    ', 220.0000,1,     0.000,     0.000,   7,   1,1.00951,  -6.3383,   1
  3301,'KNOCKERA    ', 110.0000,1,     0.000,     0.000,   7,   1,1.00271,  -6.3428,   1
  3321,'KNOCKUMB    ', 110.0000,1,     0.000,     0.000,  10,   1,0.99877, -10.2165,   5
  3330,'BALLYNAH    ', 110.0000,1,     0.000,     0.000,   3,   1,1.01882,  -3.3624,   1
  3331,'BALLYNAH    ', 110.0000,1,     0.000,     0.000,   3,   1,1.01882,  -3.3624,   1
  3332,'BALLYNAH    ', 220.0000,1,     0.000,     0.000,   3,   1,1.01442,  -3.8483,   1
  3341,'KELLIS      ', 110.0000,1,     0.000,     0.000,   6,   1,1.02508,  -9.3047,   1
  3342,'KELLIS      ', 220.0000,1,     0.000,     0.000,   6,   1,1.00415,  -9.1329,   1
  3361,'KILTOY      ', 110.0000,1,     0.000,     0.000,   9,   1,1.00395,  -1.5578,   5
  3381,'KINNEGAD    ', 110.0000,1,     0.000,     0.000,   8,   1,0.99816,  -9.2316,   1
  3391,'KNOCKACU    ', 110.0000,1,     0.000,     0.000,   3,   1,1.02391,  -3.2053,   1
  3401,'KILLOTER    ', 110.0000,1,     0.000,     0.000,   5,   1,1.00377,  -8.6442,   1
  3421,'KILMORE     ', 110.0000,1,     0.000,     0.000,   1,   1,1.01732, -10.8858,   2
  3431,'KILMAHUD    ', 110.0000,1,     0.000,     0.000,   1,   1,0.99387, -12.3360,   1
  3461,'KILPADDO    ', 110.0000,1,     0.000,     0.000,   7,   1,1.00814,  -6.3330,   1
  3462,'KILPADDO    ', 220.0000,1,     0.000,     0.000,   7,   1,1.02338,  -5.6063,   1
...
0 / END OF BUS DATA, BEGIN LOAD DATA
    10,'LD',1,   2,   1,    21.620,     3.800,     0.000,     0.000,     0.000,     0.000,   2
    11,'LD',1,   2,   1,    12.270,     5.380,     0.000,     0.000,     0.000,     0.000,   2
    12,'LD',1,   1,   1,    21.630,     3.110,     0.000,     0.000,     0.000,     0.000,   2
    13,'LD',1,   1,   1,    20.830,     0.440,     0.000,     0.000,     0.000,     0.000,   2
    14,'LD',1,   2,   1,    19.860,     6.530,     0.000,     0.000,     0.000,     0.000,   2
    15,'LD',1,   2,   1,    16.970,     5.590,     0.000,     0.000,     0.000,     0.000,   2
  1041,'LD',1,   3,   1,     0.480,     0.100,     0.000,     0.000,     0.000,     0.000,   2
  1101,'I ',1,   5,   2,    11.000,     6.000,     0.000,     0.000,     0.000,     0.000,   5
  1101,'MI',0,   5,   2,     5.620,    -1.020,     0.000,     0.000,     0.000,     0.000,   5
  4341,'I ',1,   3,   2,     1.300,     0.390,     0.000,     0.000,     0.000,     0.000,   5
 10204,'LD',1,   4,   1,     7.020,     0.400,     0.000,     0.000,     0.000,     0.000,   2
 10205,'LD',1,   4,   1,     7.020,     0.400,     0.000,     0.000,     0.000,     0.000,   2
 10470,'HL',1,   3,   1,     5.550,     1.990,     0.000,     0.000,     0.000,     0.000,   1
 10471,'HL',0,   3,   1,    11.990,     4.310,     0.000,     0.000,     0.000,     0.000,   3
 10602,'LD',1,   9,   1,     5.320,     0.080,     0.000,     0.000,     0.000,     0.000,   2
 10801,'LD',1,   7,   1,     0.770,     0.070,     0.000,     0.000,     0.000,     0.000,   2
 10901,'I ',1,   1,   2,     9.500,     3.120,     0.000,     0.000,     0.000,     0.000,   5
 10901,'LD',1,   1,   1,     1.750,     0.570,     0.000,     0.000,     0.000,     0.000,   2
 11201,'LD',1,   6,   1,     1.850,     0.610,     0.000,     0.000,     0.000,     0.000,   2
 11204,'LD',1,   6,   1,    12.200,     4.010,     0.000,     0.000,     0.000,     0.000,   2
 11404,'LD',1,   9,   1,    17.630,     3.570,     0.000,     0.000,     0.000,     0.000,   2
 12001,'LD',1,   1,   1,     4.320,     0.740,     0.000,     0.000,     0.000,     0.000,   2
 12201,'LD',1,   8,   1,     3.220,     0.220,     0.000,     0.000,     0.000,     0.000,   2
 12702,'LD',1,  10,   1,     3.450,     1.320,     0.000,     0.000,     0.000,     0.000,   2
 12804,'LD',1,   3,   1,     2.590,     0.920,     0.000,     0.000,     0.000,     0.000,   2
 13001,'LD',1,   6,   1,     2.660,     0.760,     0.000,     0.000,     0.000,     0.000,   2
 13204,'LD',1,   8,   1,     3.150,     0.270,     0.000,     0.000,     0.000,     0.000,   2
 13404,'LD',1,   9,   1,    21.560,     3.370,     0.000,     0.000,     0.000,     0.000,   2
 13501,'I ',1,   8,   2,     9.500,     2.850,     0.000,     0.000,     0.000,     0.000,   5
 13501,'LD',1,   8,   1,     3.380,     1.080,     0.000,     0.000,     0.000,     0.000,   2
 13601,'I ',1,   5,   2,     2.500,     0.750,     0.000,     0.000,     0.000,     0.000,   5
 13601,'MI',0,   5,   2,     6.710,     2.010,     0.000,     0.000,     0.000,     0.000,   5
 13604,'LD',1,   5,   1,     3.080,     0.800,     0.000,     0.000,     0.000,     0.000,   2
 13802,'LD',1,   3,   1,    16.130,     4.810,     0.000,     0.000,     0.000,     0.000,   2
 13804,'LD',1,   3,   1,     7.380,     0.820,     0.000,     0.000,     0.000,     0.000,   2
 14004,'LD',1,   9,   1,     1.600,     0.570,     0.000,     0.000,     0.000,     0.000,   2
 14204,'LD',1,   1,   1,    12.210,    -1.940,     0.000,     0.000,     0.000,     0.000,   2
 14304,'LD',1,   6,   1,     6.610,     2.170,     0.000,     0.000,     0.000,     0.000,   2
 14401,'LD',1,   3,   1,     1.860,     0.710,     0.000,     0.000,     0.000,     0.000,   2
 14404,'LD',1,   3,   1,    11.270,     2.790,     0.000,     0.000,     0.000,     0.000,   2
 14502,'I ',1,   1,   2,    23.750,     7.800,     0.000,     0.000,     0.000,     0.000,   5
 14604,'LD',1,   5,   1,     8.010,     2.790,     0.000,     0.000,     0.000,     0.000,   2
 14804,'LD',1,   5,   1,    10.360,     1.250,     0.000,     0.000,     0.000,     0.000,   2
 14902,'HL',0,  10,   1,     4.940,     1.780,     0.000,     0.000,     0.000,     0.000,   1
 15001,'I ',1,   3,   2,     4.590,     1.700,     0.000,     0.000,     0.000,     0.000,   5
 15001,'MI',0,   3,   2,     1.580,     0.150,     0.000,     0.000,     0.000,     0.000,   5
 15402,'LD',1,   6,   1,     4.250,     1.400,     0.000,     0.000,     0.000,     0.000,   2
 15704,'LD',1,   9,   1,     4.020,     1.330,     0.000,     0.000,     0.000,     0.000,   2
 15801,'LD',1,   1,   1,     2.770,     0.280,     0.000,     0.000,     0.000,     0.000,   2
 16202,'LD',1,   3,   1,     5.880,     0.750,     0.000,     0.000,     0.000,     0.000,   2
 16604,'LD',1,   9,   1,     9.230,     1.090,     0.000,     0.000,     0.000,     0.000,   2
 16901,'LD',1,   1,   1,     1.940,     0.000,     0.000,     0.000,     0.000,     0.000,   2
 17004,'LD',1,   9,   1,     3.920,     1.360,     0.000,     0.000,     0.000,     0.000,   2
 17204,'LD',1,   5,   1,    11.630,     1.920,     0.000,     0.000,     0.000,     0.000,   2
 17404,'LD',1,   2,   1,    22.080,    13.180,     0.000,     0.000,     0.000,     0.000,   2
 17802,'I ',1,   7,   2,    44.000,    13.200,     0.000,     0.000,     0.000,     0.000,   5
 17802,'MI',0,   7,   2,     5.000,     1.500,     0.000,     0.000,     0.000,     0.000,   5
 17901,'LD',1,   8,   1,     3.520,     1.160,     0.000,     0.000,     0.000,     0.000,   2
 18001,'LD',1,   1,   1,     1.080,     0.350,     0.000,     0.000,     0.000,     0.000,   2
 18004,'LD',1,   1,   1,    13.090,     0.120,     0.000,     0.000,     0.000,     0.000,   2
 18204,'LD',1,   9,   1,     6.910,     1.550,     0.000,     0.000,     0.000,     0.000,   2
 18304,'LD',1,   9,   1,     3.790,     1.250,     0.000,     0.000,     0.000,     0.000,   2
 18402,'LD',1,   6,   1,     5.290,     1.100,     0.000,     0.000,     0.000,     0.000,   2
 18404,'LD',1,   6,   1,     3.380,     0.570,     0.000,     0.000,     0.000,     0.000,   2
 18504,'I ',1,   2,   2,    19.000,     6.240,     0.000,     0.000,     0.000,     0.000,   5
 18504,'LD',1,   2,   1,     7.200,     2.370,     0.000,     0.000,     0.000,     0.000,   2
 18604,'LD',1,   9,   1,     8.140,     0.540,     0.000,     0.000,     0.000,     0.000,   2
 18701,'LD',1,   2,   1,    11.860,     2.380,     0.000,     0.000,     0.000,     0.000,   2
 18804,'LD',1,   3,   1,     5.320,     1.640,     0.000,     0.000,     0.000,     0.000,   2
 18901,'HL',0,  10,   1,     0.980,     0.350,     0.000,     0.000,     0.000,     0.000,   1
 19004,'LD',1,   6,   1,     5.980,     0.060,     0.000,     0.000,     0.000,     0.000,   2
 19204,'LD',1,   3,   1,     3.230,     0.550,     0.000,     0.000,     0.000,     0.000,   2
 19471,'HL',1,   8,   1,     5.400,     1.940,     0.000,     0.000,     0.000,     0.000,   4
 19504,'LD',1,   9,   1,     7.360,     0.870,     0.000,     0.000,     0.000,     0.000,   2
 19601,'LD',1,   3,   1,    10.130,     1.490,     0.000,     0.000,     0.000,     0.000,   2
 20201,'LD',1,   1,   1,    14.090,     5.190,     0.000,     0.000,     0.000,     0.000,   2
 20501,'LD',1,   3,   1,     5.410,     1.710,     0.000,     0.000,     0.000,     0.000,   2
 21004,'LD',1,  10,   1,     9.910,     0.280,     0.000,     0.000,     0.000,     0.000,   2
 21202,'LD',1,   4,   1,     2.920,     0.950,     0.000,     0.000,     0.000,     0.000,   2
 21204,'LD',1,   4,   1,     7.020,     0.240,     0.000,     0.000,     0.000,     0.000,   2
 21404,'LD',1,   5,   1,    11.020,     0.300,     0.000,     0.000,     0.000,     0.000,   2
 21604,'LD',1,   5,   1,     4.140,     0.590,     0.000,     0.000,     0.000,     0.000,   2
 21804,'LD',1,  10,   1,    18.430,     1.220,     0.000,     0.000,     0.000,     0.000,   2
 22204,'LD',1,   3,   1,     8.770,     1.360,     0.000,     0.000,     0.000,     0.000,   2
 22404,'LD',1,   5,   1,     4.110,     0.450,     0.000,     0.000,     0.000,     0.000,   2
 22501,'I ',1,   1,   2,    10.450,     3.434,     0.000,     0.000,     0.000,     0.000,   5
 22671,'HL',0,   8,   1,     0.300,     0.100,     0.000,     0.000,     0.000,     0.000,   1
 22672,'HL',0,   8,   1,     0.300,     0.100,     0.000,     0.000,     0.000,     0.000,   1
 22804,'LD',1,   9,   1,     6.340,     0.750,     0.000,     0.000,     0.000,     0.000,   2
 23001,'LD',1,   8,   1,     2.580,     0.080,     0.000,     0.000,     0.000,     0.000,   2
 23604,'LD',1,   4,   1,    17.190,     2.510,     0.000,     0.000,     0.000,     0.000,   2
 24104,'LD',1,   6,   1,     4.370,     1.430,     0.000,     0.000,     0.000,     0.000,   2
 24804,'LD',1,   2,   1,    14.190,     4.100,     0.000,     0.000,     0.000,     0.000,   2
 25604,'LD',1,   2,   1,    21.770,     4.420,     0.000,     0.000,     0.000,     0.000,   2
 26802,'I ',1,   9,   2,    10.440,     3.130,     0.000,     0.000,     0.000,     0.000,   5
 26802,'MI',0,   9,   2,     0.060,     0.020,     0.000,     0.000,     0.000,     0.000,   5
 27004,'LD',1,   1,   1,    20.090,     2.040,     0.000,     0.000,     0.000,     0.000,   2
 27204,'LD',1,   2,   1,    17.380,     4.120,     0.000,     0.000,     0.000,     0.000,   2
 27404,'LD',1,   6,   1,     0.970,    -0.040,     0.000,     0.000,     0.000,     0.000,   2
 27474,'HL',0,   6,   1,     8.490,     3.050,     0.000,     0.000,     0.000,     0.000,   1
 27604,'LD',1,   1,   1,    16.030,     2.990,     0.000,     0.000,     0.000,     0.000,   2
 27801,'LD',1,   9,   1,     7.910,     1.440,     0.000,     0.000,     0.000,     0.000,   2
 27804,'LD',1,   9,   1,    22.100,    -1.850,     0.000,     0.000,     0.000,     0.000,   2
 28201,'I ',1,   9,   2,    17.000,     5.100,     0.000,     0.000,     0.000,     0.000,   5
 28201,'MI',0,   9,   2,     3.890,     1.170,     0.000,     0.000,     0.000,     0.000,   5
 28204,'LD',1,   9,   1,     3.230,     1.100,     0.000,     0.000,     0.000,     0.000,   2
 28571,'HL',1,   3,   1,     1.330,     0.470,     0.000,     0.000,     0.000,     0.000,   1
 28601,'I ',1,   1,   2,     9.000,     2.700,     0.000,     0.000,     0.000,     0.000,   5
 28601,'LD',1,   1,   1,     5.640,     0.570,     0.000,     0.000,     0.000,     0.000,   2
 28604,'LD',1,   1,   1,    11.040,     0.530,     0.000,     0.000,     0.000,     0.000,   2
 28611,'I ',1,   1,   2,     9.000,     2.700,     0.000,     0.000,     0.000,     0.000,   5
 28804,'LD',1,   3,   1,     4.730,     1.230,     0.000,     0.000,     0.000,     0.000,   2
 29401,'LD',1,   1,   1,     5.990,     3.250,     0.000,     0.000,     0.000,     0.000,   2
 29501,'LD',1,   1,   1,     1.540,     0.490,     0.000,     0.000,     0.000,     0.000,   2
 29672,'HL',1,   2,   1,     4.200,     1.510,     0.000,     0.000,     0.000,     0.000,   4
 29801,'LD',1,   3,   1,     2.410,     0.790,     0.000,     0.000,     0.000,     0.000,   2
 30804,'LD',1,   2,   1,    25.840,     8.520,     0.000,     0.000,     0.000,     0.000,   2
 31004,'LD',1,   5,   1,     8.430,     1.860,     0.000,     0.000,     0.000,     0.000,   2
 31271,'HL',1,   2,   1,     2.740,     0.980,     0.000,     0.000,     0.000,     0.000,   4
 32201,'LD',1,   3,   1,     4.980,     2.010,     0.000,     0.000,     0.000,     0.000,   2
 32204,'LD',1,   3,   1,    16.650,    -0.310,     0.000,     0.000,     0.000,     0.000,   2
 32404,'LD',1,   8,   1,     9.390,     4.320,     0.000,     0.000,     0.000,     0.000,   2
 32604,'LD',1,   6,   1,    13.250,     1.580,     0.000,     0.000,     0.000,     0.000,   2
 33004,'LD',1,   7,   1,    12.460,     0.190,     0.000,     0.000,     0.000,     0.000,   2
 33201,'I ',1,  10,   2,    23.000,     6.900,     0.000,     0.000,     0.000,     0.000,   5
 33201,'MI',0,  10,   2,     6.440,     1.930,     0.000,     0.000,     0.000,     0.000,   5
 33801,'I ',1,   8,   2,     4.000,     1.200,     0.000,     0.000,     0.000,     0.000,   5
 33801,'MI',0,   8,   2,     7.730,     2.310,     0.000,     0.000,     0.000,     0.000,   5
 34001,'LD',1,   5,   1,     6.580,     1.440,     0.000,     0.000,     0.000,     0.000,   2
 34201,'LD',1,   1,   1,     8.510,     2.950,     0.000,     0.000,     0.000,     0.000,   2
 34301,'I ',1,   1,   2,    23.750,     7.120,     0.000,     0.000,     0.000,     0.000,   5
 35004,'LD',1,   9,   1,     2.880,     0.570,     0.000,     0.000,     0.000,     0.000,   2
 35074,'HL',1,   9,   1,     6.300,     2.260,     0.000,     0.000,     0.000,     0.000,   3
 35404,'LD',1,   7,   1,    26.730,     2.500,     0.000,     0.000,     0.000,     0.000,   2
 35604,'LD',1,  10,   1,     8.060,     1.150,     0.000,     0.000,     0.000,     0.000,   2
 35804,'LD',1,   9,   1,    20.750,     6.810,     0.000,     0.000,     0.000,     0.000,   2
 36001,'LD',1,   3,   1,     7.400,     2.620,     0.000,     0.000,     0.000,     0.000,   2
 36201,'I ',1,   5,   2,    16.600,     3.600,     0.000,     0.000,     0.000,     0.000,   5
 36201,'MI',0,   5,   2,     2.390,     2.100,     0.000,     0.000,     0.000,     0.000,   5
 37501,'LD',1,   1,   1,     7.670,     0.810,     0.000,     0.000,     0.000,     0.000,   2
 37601,'LD',1,   1,   1,     8.490,     0.640,     0.000,     0.000,     0.000,     0.000,   2
 37602,'I ',1,   1,   2,     5.000,     1.500,     0.000,     0.000,     0.000,     0.000,   5
 37602,'MI',0,   1,   2,     5.440,     1.630,     0.000,     0.000,     0.000,     0.000,   5
 38001,'LD',1,   3,   1,     5.000,     1.170,     0.000,     0.000,     0.000,     0.000,   2
 38004,'LD',1,   3,   1,     2.310,     0.420,     0.000,     0.000,     0.000,     0.000,   2
 38204,'LD',1,  10,   1,     6.840,     2.650,     0.000,     0.000,     0.000,     0.000,   2
 38601,'LD',1,   1,   1,     2.900,     0.650,     0.000,     0.000,     0.000,     0.000,   2
 38701,'LD',1,   1,   1,     2.830,     0.750,     0.000,     0.000,     0.000,     0.000,   2
 38804,'LD',1,   3,   1,     2.620,    -0.790,     0.000,     0.000,     0.000,     0.000,   2
 39471,'HL',0,   4,   1,    20.030,     7.210,     0.000,     0.000,     0.000,     0.000,   3
 39472,'HL',1,   4,   1,    11.940,     4.290,     0.000,     0.000,     0.000,     0.000,   3
 39473,'HL',0,   4,   1,    20.030,     7.210,     0.000,     0.000,     0.000,     0.000,   3
 39601,'LD',1,   3,   1,     4.800,     0.770,     0.000,     0.000,     0.000,     0.000,   2
 39675,'HL',0,   3,   1,     5.000,     1.800,     0.000,     0.000,     0.000,     0.000,   3
 39801,'I ',1,   7,   2,    15.000,     4.500,     0.000,     0.000,     0.000,     0.000,   5
 39801,'MI',0,   7,   2,     8.500,     2.550,     0.000,     0.000,     0.000,     0.000,   5
 40001,'LD',1,   9,   1,     3.860,     1.220,     0.000,     0.000,     0.000,     0.000,   2
 40004,'LD',1,   9,   1,     7.490,    -0.870,     0.000,     0.000,     0.000,     0.000,   2
 40204,'LD',1,   3,   1,     9.110,     2.760,     0.000,     0.000,     0.000,     0.000,   2
 40404,'LD',1,   9,   1,     6.920,     0.870,     0.000,     0.000,     0.000,     0.000,   2
 40602,'I ',1,  10,   2,     2.000,     0.600,     0.000,     0.000,     0.000,     0.000,   5
 40602,'MI',0,  10,   2,     5.600,     1.680,     0.000,     0.000,     0.000,     0.000,   5
 40604,'LD',1,  10,   1,     7.970,     2.620,     0.000,     0.000,     0.000,     0.000,   2
 40801,'LD',1,   8,   1,     3.260,     0.270,     0.000,     0.000,     0.000,     0.000,   2
 41002,'I ',1,   1,   2,    18.000,     5.900,     0.000,     0.000,     0.000,     0.000,   5
 41102,'I ',1,   1,   2,    24.000,    11.630,     0.000,     0.000,     0.000,     0.000,   5
 42004,'LD',1,   8,   1,     8.550,     1.770,     0.000,     0.000,     0.000,     0.000,   2
 42102,'LD',1,   1,   1,     4.790,     0.270,     0.000,     0.000,     0.000,     0.000,   2
 42204,'LD',1,  10,   1,    13.670,     0.520,     0.000,     0.000,     0.000,     0.000,   2
 42501,'HL',0,   6,   1,     3.970,     1.430,     0.000,     0.000,     0.000,     0.000,   1
 42604,'LD',1,   7,   1,     7.720,     2.540,     0.000,     0.000,     0.000,     0.000,   2
 42802,'I ',1,   1,   2,    11.000,     3.300,     0.000,     0.000,     0.000,     0.000,   5
 42802,'MI',0,   1,   2,    15.000,     4.500,     0.000,     0.000,     0.000,     0.000,   5
 43604,'LD',1,   7,   1,     9.200,     0.580,     0.000,     0.000,     0.000,     0.000,   2
 44001,'LD',1,   1,   1,     6.370,     0.390,     0.000,     0.000,     0.000,     0.000,   2
 44802,'LD',1,   8,   1,     2.570,     0.840,     0.000,     0.000,     0.000,     0.000,   2
 44804,'LD',1,   8,   1,     4.690,    -1.190,     0.000,     0.000,     0.000,     0.000,   2
 44901,'LD',1,   1,   1,     4.200,     0.000,     0.000,     0.000,     0.000,     0.000,   2
 45001,'I ',1,  10,   2,    21.000,     6.300,     0.000,     0.000,     0.000,     0.000,   5
 45001,'MI',0,  10,   2,    11.290,     3.380,     0.000,     0.000,     0.000,     0.000,   5
 45101,'LD',1,   1,   1,     3.910,     0.340,     0.000,     0.000,     0.000,     0.000,   2
 46102,'I ',1,   7,   2,    61.000,    18.300,     0.000,     0.000,     0.000,     0.000,   5
 46210,'I ',1,   2,   2,    25.000,     7.500,     0.000,     0.000,     0.000,     0.000,   5
 46210,'MI',0,   2,   2,     9.840,     2.950,     0.000,     0.000,     0.000,     0.000,   5
 46214,'I ',1,   2,   2,    25.000,     7.500,     0.000,     0.000,     0.000,     0.000,   5
 46214,'MI',0,   2,   2,     9.840,     2.950,     0.000,     0.000,     0.000,     0.000,   5
 46224,'I ',1,   2,   2,    25.000,     7.500,     0.000,     0.000,     0.000,     0.000,   5
 46224,'MI',0,   2,   2,     9.840,     2.950,     0.000,     0.000,     0.000,     0.000,   5
 46501,'LD',1,   1,   1,     2.590,     1.000,     0.000,     0.000,     0.000,     0.000,   2
 46511,'HL',0,   1,   1,     9.360,     3.360,     0.000,     0.000,     0.000,     0.000,   1
 46804,'LD',1,   7,   1,    10.330,     2.990,     0.000,     0.000,     0.000,     0.000,   2
 47004,'LD',1,   9,   1,     7.680,     4.280,     0.000,     0.000,     0.000,     0.000,   2
 47402,'I ',1,   2,   2,     7.600,     2.280,     0.000,     0.000,     0.000,     0.000,   5
 47402,'MI',0,   2,   2,     7.600,     2.280,     0.000,     0.000,     0.000,     0.000,   5
 47601,'LD',1,   3,   1,     1.010,     0.160,     0.000,     0.000,     0.000,     0.000,   2
 49001,'I ',1,   6,   2,     2.290,     0.680,     0.000,     0.000,     0.000,     0.000,   5
 49474,'HL',1,   5,   1,     4.720,     1.700,     0.000,     0.000,     0.000,     0.000,   3
 49501,'LD',1,   9,   1,     7.510,     0.890,     0.000,     0.000,     0.000,     0.000,   2
 49504,'LD',1,   9,   1,     7.040,     2.000,     0.000,     0.000,     0.000,     0.000,   2
 49604,'LD',1,  10,   1,    14.960,     3.470,     0.000,     0.000,     0.000,     0.000,   2
...
0 / END OF LOAD DATA, BEGIN GENERATOR DATA
 10271,'1 ',    21.000,     0.000,    15.000,    -7.000,1.00000,  1021,    34.000,   0.00000,   0.22000,   0.00000,   0.00000,1.00000,0,   15.0,    21.000,     5.000,   3,1.0000
 10272,'2 ',    22.000,     0.000,    15.000,    -7.000,1.00000,  1021,    34.000,   0.00000,   0.22000,   0.00000,   0.00000,1.00000,0,   15.0,    22.000,     5.000,   3,1.0000
 10273,'3 ',    19.000,     0.000,    15.000,    -7.000,1.00000,  1021,    34.000,   0.00000,   0.22000,   0.00000,   0.00000,1.00000,0,   15.0,    19.000,     5.000,   3,1.0000
 10274,'4 ',    24.000,     0.000,    15.000,    -7.000,1.00000,  1021,    34.000,   0.00000,   0.22000,   0.00000,   0.00000,1.00000,0,   15.0,    24.000,     5.000,   3,1.0000
 10275,'3 ',     2.250,     0.000,     0.000,     0.000,1.04000,     0,     8.350,   0.00920,   0.16210,   0.00000,   0.00000,1.00000,1,    2.3,     7.500,     0.000,   7,1.0000
 10276,'2 ',     0.198,     0.000,     0.000,     0.000,1.04000,     0,     0.850,   0.00730,   0.13500,   0.00000,   0.00000,1.00000,1,    0.2,     0.660,     0.000,   7,1.0000
 10470,'1 ',   222.000,   -44.470,   270.000,  -170.000,1.00000,  1062,   500.000,   0.00270,   0.18000,   0.00000,   0.00000,1.00000,0,  250.0,   443.000,   222.000,   1,1.0000
 10471,'1 ',   270.000,     0.000,   159.000,   -75.000,1.00000,  1062,   318.800,   0.00000,   0.22500,   0.00000,   0.00000,1.00000,0,  153.0,   270.000,    40.000,   3,1.0000
 10472,'11',    90.000,     0.000,    60.000,   -30.000,1.00000,  1062,   100.900,   0.00000,   0.12500,   0.00000,   0.00000,1.00000,0,   60.0,    90.000,    13.000,   3,1.0000
 10473,'12',    90.000,     0.000,    60.000,   -30.000,1.00000,  1062,   100.900,   0.00000,   0.12500,   0.00000,   0.00000,1.00000,0,   60.0,    90.000,    13.000,   3,1.0000
 10474,'14',    90.000,     0.000,    60.000,   -30.000,1.00000,  1062,   100.900,   0.00000,   0.12500,   0.00000,   0.00000,1.00000,0,   60.0,    90.000,    13.000,   3,1.0000
 10671,'2 ',     1.440,    -1.940,    -1.940,    -1.940,1.04000,     0,     4.800,   0.02040,   0.33060,   0.00000,   0.00000,1.00000,1,    1.5,     4.800,     0.000,   7,1.0000
 10672,'3 ',     1.500,    -2.000,    -2.000,    -2.000,1.04000,     0,     6.000,   0.02040,   0.33060,   0.00000,   0.00000,1.00000,1,    1.6,     5.000,     0.000,   7,1.0000
 10673,'1 ',     0.360,    -0.480,    -0.480,    -0.480,1.04000,     0,     1.200,   0.02040,   0.33060,   0.00000,   0.00000,1.00000,1,    0.4,     1.200,     0.000,   7,1.0000
 10674,'5 ',     1.380,    -1.770,    -1.770,    -2.300,1.04000,     0,     4.600,   0.02570,   0.73700,   0.00000,   0.00000,1.00000,1,    1.7,     4.600,     0.000,   7,1.0000
 11204,'1 ',     1.000,     0.000,     0.000,     0.000,1.00000,     0,     1.600,   0.00000,   0.20000,   0.01000,   0.06000,1.00000,0,  100.0,     1.000,     0.000,   2,1.0000
 11271,'1 ',     7.560,     0.000,     0.000,     0.000,1.04000,     0,    28.000,   0.00320,   0.12400,   0.00000,   0.00000,1.00000,1,    7.9,    25.200,     0.000,   7,1.0000
 11370,'1 ',     6.600,    -2.988,     5.590,    -5.590,1.00000,  2131,    30.000,   0.00000,   0.57860,   0.00000,   0.00000,1.00000,1,    5.7,    22.000,     0.000,   7,1.0000
 11371,'1 ',    15.300,   -10.483,    20.000,   -20.000,1.00000,  2131,    66.000,   0.00000,   0.57860,   0.00000,   0.00000,1.00000,1,   20.0,    51.000,     0.000,   7,1.0000
 11374,'DW',     1.200,    -0.650,     1.310,    -1.310,1.00000,  2131,     4.000,   0.00900,   0.14800,   0.00000,   0.00000,1.00000,1,    1.2,     4.000,     0.000,   7,1.0000
 11375,'DW',     1.080,    -0.587,     1.180,    -1.180,1.00000,  2131,     4.000,   0.00900,   0.14800,   0.00000,   0.00000,1.00000,1,    1.1,     3.600,     0.000,   7,1.0000
 12371,'1 ',     9.450,    -7.000,     7.000,    -7.000,1.00000,  1231,    32.000,   0.02570,   0.73700,   0.00000,   0.00000,1.00000,1,    7.0,    31.500,     0.000,   7,1.0000
 12372,'2 ',     3.150,     0.000,     0.000,     0.000,1.00000,  1231,    10.000,   0.02570,   0.73700,   0.00000,   0.00000,1.00000,1,    3.5,    10.500,     0.000,   7,1.0000
 12571,'1 ',     5.835,     0.000,     0.000,     0.000,1.00000,  1251,    25.050,   0.00920,   0.16210,   0.00000,   0.00000,1.00000,1,    6.4,    19.450,     0.000,   7,1.0000
 12572,'TW',     0.900,    -0.990,     0.990,    -0.990,1.00000,  1251,     3.340,   0.00920,   0.16210,   0.00000,   0.00000,1.00000,1,    1.0,     3.000,     0.000,   7,1.0000
 12573,'TW',     2.700,    -2.960,     2.960,    -2.960,1.00000,  1251,    10.020,   0.00920,   0.16210,   0.00000,   0.00000,1.00000,1,    3.0,     9.000,     0.000,   7,1.0000
 12871,'DW',     0.690,    -0.243,     0.000,    -0.660,1.00000,  1281,     2.300,   0.02570,   0.73700,   0.00000,   0.00000,1.00000,1,    0.6,     2.300,     0.000,   7,1.0000
 12872,'DW',     2.520,    -1.026,     0.000,    -2.760,1.00000,  1281,     9.200,   0.02570,   0.73700,   0.00000,   0.00000,1.00000,1,    2.6,     8.400,     0.000,   7,1.0000
 12873,'1 ',     5.865,     0.000,     0.000,     0.000,1.00000,  1281,    20.700,   0.02570,   0.73700,   0.00000,   0.00000,1.00000,1,    6.1,    19.550,     0.000,   7,1.0000
 12874,'1 ',     2.550,     0.000,     0.000,     0.000,1.00000,  1281,     8.500,   0.00210,   0.08600,   0.00000,   0.00000,1.00000,1,    2.7,     8.500,     0.000,   7,1.0000
 13170,'1 ',     7.185,     0.000,     0.000,     0.000,1.00000,  1311,    25.300,   0.02570,   0.73700,   0.00000,   0.00000,1.00000,1,    4.6,    23.950,     0.000,   7,1.0000
 13171,'1 ',     3.000,     0.000,     0.000,     0.000,1.00000,  1311,    10.000,   0.00900,   0.14800,   0.00000,   0.00000,1.00000,1,    6.0,    10.000,     0.000,   7,1.0000
 13173,'DW',     2.550,     0.000,     0.000,     0.000,1.00000,  1311,    10.500,   0.00900,   0.14800,   0.00000,   0.00000,1.00000,1,    6.0,     8.500,     0.000,   7,1.0000
 13174,'DW',    10.755,     0.000,     0.000,     0.000,1.00000,  1311,    36.000,   0.02570,   0.73700,   0.00000,   0.00000,1.00000,1,   11.0,    35.850,     0.000,   7,1.0000
 13175,'DW',     3.450,     0.000,     0.000,     0.000,1.00000,  1311,    11.500,   0.02570,   0.73700,   0.00000,   0.00000,1.00000,1,    3.7,    11.500,     0.000,   7,1.0000
 13176,'DW',     5.400,     0.000,     0.000,     0.000,1.00000,  1311,    18.750,   0.00900,   0.16600,   0.00000,   0.00000,1.00000,1,    5.6,    18.000,     0.000,   7,1.0000
 13434,'10',     4.300,     0.000,     0.000,     0.000,1.00000,     0,     4.500,   0.00000,   0.20000,   0.00000,   0.10000,1.00000,0,    1.0,     4.300,     0.000,   1,1.0000
 13471,'1 ',     0.198,     0.000,     0.000,     0.000,1.00000,  1341,     0.660,   0.02040,   0.33060,   0.00000,   0.00000,1.00000,1,    0.2,     0.660,     0.000,   7,1.0000
 13472,'DW',     0.765,     0.000,     0.000,    -0.840,1.00000,  1341,     2.700,   0.03020,   0.86600,   0.00000,   0.00000,1.00000,1,    0.8,     2.550,     0.000,   7,1.0000
 13473,'4 ',     3.000,     0.000,     0.000,     0.000,1.00000,  1341,    10.000,   0.00320,   0.12400,   0.00000,   0.00000,1.00000,1,    4.7,    10.000,     0.000,   7,1.0000
 13474,'5 ',     1.800,     0.000,     0.000,     0.000,1.00000,  1341,     6.250,   0.00900,   0.16600,   0.00000,   0.00000,1.00000,1,    1.9,     6.000,     0.000,   7,1.0000
 13475,'6 ',     2.295,     0.000,     0.000,     0.000,1.00000,  1341,     7.650,   0.00730,   0.13500,   0.00000,   0.00000,1.00000,1,    2.4,     7.650,     0.000,   7,1.0000
 13476,'3 ',     3.570,     0.000,     0.000,     0.000,1.00000,  1341,    11.500,   0.02570,   0.73700,   0.00000,   0.00000,1.00000,1,    3.7,    11.900,     0.000,   7,1.0000
 13477,'2 ',     0.765,     0.000,     0.000,     0.000,1.00000,  1341,     2.700,   0.03020,   0.86600,   0.00000,   0.00000,1.00000,1,    0.8,     2.550,     0.000,   7,1.0000
 13479,'9 ',     1.020,     0.000,     0.000,     0.000,1.00000,     0,     3.400,   0.00730,   0.13500,   0.00000,   0.00000,1.00000,1,    1.1,     3.400,     0.000,   7,1.0000
 14073,'3 ',     1.935,    -2.400,    -2.400,    -2.400,1.04000,     0,     7.611,   0.02040,   0.33060,   0.00000,   0.00000,1.00000,1,    2.0,     6.450,     0.000,   7,1.0000
 14075,'1 ',    10.000,     0.000,     0.000,     0.000,1.00000,     0,    10.000,   0.00000,   0.15500,   0.00000,   0.00000,1.00000,0,    3.0,    10.000,     1.000,   1,1.0000
 14471,'1 ',     1.200,     0.000,     0.000,     0.000,1.04000,     0,     4.000,   0.00320,   0.12400,   0.00000,   0.00000,1.00000,1,    1.4,     4.000,     0.000,   7,1.0000
 14472,'1 ',     0.255,     0.000,     0.000,     0.000,1.00000,     0,     0.850,   0.00210,   0.08600,   0.00000,   0.00000,1.00000,1,    0.1,     0.850,     0.000,   1,1.0000
 14604,'1 ',     4.800,     0.000,     0.000,     0.000,1.05000,     0,     7.000,   0.00000,   0.15000,   0.00000,   0.10000,1.00000,0,    2.0,     4.800,     0.000,   5,1.0000
 14871,'1 ',     0.510,     0.000,     0.000,     0.000,1.04000,     0,     4.600,   0.02570,   0.73700,   0.00000,   0.00000,1.00000,1,    0.5,     1.700,     0.000,   7,1.0000
 14902,'OH',   450.000,     0.000,   279.000,  -178.000,1.00000,  3522,   540.000,   0.00000,   0.32770,   0.00000,   0.00000,1.00000,0,  279.0,   450.000,   225.000,   4,1.0000
 15171,'TW',    13.800,     0.160,    15.120,   -15.120,1.00000,  1511,    46.000,   0.00900,   0.14800,   0.00000,   0.00000,1.00000,1,   15.3,    46.000,     0.000,   7,1.0000
 15172,'DW',     3.000,    -3.290,     3.290,    -3.290,1.00000,     0,    10.000,   0.00900,   0.14800,   0.00000,   0.00000,1.00000,1,    3.1,    10.000,     0.000,   7,1.0000
 15173,'DW',     0.765,    -0.840,     0.840,    -0.840,1.00000,     0,     2.550,   0.00730,   0.13500,   0.00000,   0.00000,1.00000,1,    0.8,     2.550,     0.000,   7,1.0000
 15174,'DW',     6.000,    -6.570,     6.570,    -6.570,1.00000,     0,    20.000,   0.00900,   0.14800,   0.00000,   0.00000,1.00000,1,    6.2,    20.000,     0.000,   7,1.0000
 15571,'DW',     1.785,    -1.772,     1.960,    -1.960,1.00000,     0,     5.950,   0.00730,   0.13500,   0.00000,   0.00000,1.00000,1,    1.9,     5.950,     0.000,   7,1.0000
 15572,'DW',     5.400,    -3.844,     5.920,    -5.920,1.00000,     0,    18.750,   0.00900,   0.16600,   0.00000,   0.00000,1.00000,1,    5.6,    18.000,     0.000,   7,1.0000
 15573,'1 ',     6.000,     0.000,     0.000,     0.000,1.04000,     0,    23.000,   0.02570,   0.73700,   0.00000,   0.00000,1.00000,1,    6.2,    20.000,     0.000,   7,1.0000
 15771,'1 ',     0.594,    -0.300,    -0.300,    -0.300,1.00000,  3581,     1.980,   0.02040,   0.33060,   0.00000,   0.00000,1.00000,1,    1.5,     1.980,     0.000,   7,1.0000
 15772,'1 ',     0.900,    -1.920,    -1.920,    -1.920,1.00000,  3581,     3.000,   0.02040,   0.33060,   0.00000,   0.00000,1.00000,1,    1.5,     3.000,     0.000,   7,1.0000
 16371,'1 ',     1.020,     0.000,     0.000,     0.000,1.00000,     0,     3.400,   0.00730,   0.13500,   0.00000,   0.00000,1.00000,1,    1.1,     3.400,     0.000,   7,1.0000
 16372,'2 ',     1.020,     0.000,     0.000,     0.000,1.00000,     0,     3.400,   0.00730,   0.13500,   0.00000,   0.00000,1.00000,1,    1.1,     3.400,     0.000,   7,1.0000
 16373,'3 ',     2.040,     0.000,     0.000,     0.000,1.00000,     0,     6.800,   0.00730,   0.13500,   0.00000,   0.00000,1.00000,1,    2.1,     6.800,     0.000,   7,1.0000
 16374,'4 ',     2.295,     0.000,     0.000,     0.000,1.00000,     0,     7.650,   0.00210,   0.08600,   0.00000,   0.00000,1.00000,1,    2.4,     7.650,     0.000,   7,1.0000
 16375,'1 ',     1.188,     0.000,     0.000,     0.000,1.00000,     0,     4.250,   0.00210,   0.08600,   0.00000,   0.00000,1.00000,1,    1.3,     3.960,     0.000,   7,1.0000
 16376,'6 ',     1.485,     0.000,     0.000,     0.000,1.00000,     0,     5.100,   0.00210,   0.08600,   0.00000,   0.00000,1.00000,1,    1.5,     4.950,     0.000,   7,1.0000
 16377,'1 ',     2.700,     0.000,     0.000,     0.000,1.00000,     0,     9.200,   0.02570,   0.73700,   0.00000,   0.00000,1.00000,1,    3.0,     9.000,     0.000,   7,1.0000
 16378,'1 ',     0.480,     0.000,     0.000,     0.000,1.00000,     0,     1.700,   0.00210,   0.08600,   0.00000,   0.00000,1.00000,1,    0.5,     1.600,     0.000,   7,1.0000
 16379,'2 ',     0.087,     0.000,     0.000,     0.000,1.00000,     0,     0.323,   0.00320,   0.12400,   0.00000,   0.00000,1.00000,1,    1.3,     0.290,     0.000,   7,1.0000
 16571,'1 ',    11.340,     0.000,     0.000,     0.000,1.00000,  1651,    40.000,   0.02570,   0.73700,   0.00000,   0.00000,1.00000,1,   12.6,    37.800,     0.000,   7,1.0000
 16670,'1 ',     1.350,    -1.390,     0.000,    -3.070,1.00000,     0,     4.500,   0.03020,   0.86600,   0.00000,   0.00000,1.00000,1,    2.9,     4.500,     0.000,   7,1.0000
 16671,'1 ',     1.020,     0.000,     0.000,     0.000,1.04000,     0,     3.400,   0.00730,   0.13500,   0.00000,   0.00000,1.00000,1,    1.1,     3.400,     0.000,   7,1.0000
 16672,'2 ',     0.477,    -0.560,    -0.560,    -0.560,1.04000,     0,     1.700,   0.00730,   0.13500,   0.00000,   0.00000,1.00000,1,    0.5,     1.590,     0.000,   7,1.0000
 16674,'1 ',     5.610,     0.000,     0.000,     0.000,1.04000,     0,    18.700,   0.00730,   0.13500,   0.00000,   0.00000,1.00000,1,    5.8,    18.700,     0.000,   7,1.0000
 16675,'2 ',     2.400,    -2.650,    -2.650,    -2.650,1.04000,     0,     8.000,   0.02690,   0.76900,   0.00000,   0.00000,1.00000,1,    2.7,     8.000,     0.000,   7,1.0000
 16677,'1 ',     1.020,     0.000,     0.000,     0.000,1.00000,     0,     3.400,   0.00210,   0.08600,   0.00000,   0.00000,1.00000,1,    1.1,     3.400,     0.000,   7,1.0000
 16679,'3 ',     1.020,     0.000,     0.000,     0.000,1.00000,     0,     3.400,   0.00210,   0.08600,   0.00000,   0.00000,1.00000,1,    1.1,     3.400,     0.000,   7,1.0000
 16873,'3 ',     8.000,     0.000,     7.000,    -1.000,1.00000,  1681,    11.500,   0.00000,   0.25000,   0.00000,   0.00000,1.00000,0,    7.0,     8.000,     2.000,   3,1.0000
 17073,'3 ',    22.500,     0.000,    23.000,   -25.000,1.00000,  1701,    35.500,   0.00410,   0.18000,   0.00000,   0.00000,1.00000,0,    7.0,    22.500,     5.000,   3,1.0000
 17074,'4 ',    22.500,     0.000,    23.000,   -25.000,1.00000,  1701,    35.500,   0.00410,   0.18000,   0.00000,   0.00000,1.00000,0,    7.0,    22.500,     5.000,   3,1.0000
 17075,'7 ',     0.594,    -0.800,    -0.800,    -0.800,1.00000,     0,     1.980,   0.02040,   0.33060,   0.00000,   0.00000,1.00000,1,    0.6,     1.980,     0.000,   7,1.0000
 17077,'8 ',     0.006,     0.000,     0.000,     0.000,1.00000,     0,     1.200,   0.03020,   0.86600,   0.00000,   0.00000,1.00000,1,    0.3,     0.020,     0.000,   7,1.0000
 17671,'1 ',    10.000,     0.000,     7.000,    -3.000,1.00000,  1701,    12.500,   0.00000,   0.15000,   0.00000,   0.00000,1.00000,0,    7.0,    10.000,     3.000,   3,1.0000
 17672,'2 ',    10.000,     0.000,     7.000,    -3.000,1.00000,  1701,    12.500,   0.00000,   0.13500,   0.00000,   0.00000,1.00000,0,    7.0,    10.000,     3.000,   3,1.0000
 18271,'DW',     1.275,    -1.000,    -1.000,    -1.000,1.00000,     0,     4.250,   0.00730,   0.13500,   0.00000,   0.00000,1.00000,1,    1.2,     4.250,     0.000,   7,1.0000
 18471,'1 ',     1.497,     0.000,     0.000,     0.000,1.04000,     0,     5.200,   0.00550,   0.14300,   0.00000,   0.00000,1.00000,1,    1.5,     4.990,     0.000,   7,1.0000
 18472,'DW',     0.750,    -0.651,     0.000,    -0.820,1.00000,     0,     2.978,   0.00220,   0.41940,   0.00000,   0.00000,1.00000,1,    0.8,     2.500,     0.000,   7,1.0000
 18901,'OH',    58.000,     0.000,    30.000,   -21.320,1.00000,  1891,    68.235,   0.00000,   0.17000,   0.00000,   0.00000,1.00000,0,   30.0,    58.000,    20.000,   1,1.0000
 19081,'1 ',     0.765,     0.000,     0.000,     0.000,1.04000,     0,     2.550,   0.00730,   0.13500,   0.00000,   0.00000,1.00000,1,    0.8,     2.550,     0.000,   7,1.0000
 19082,'2 ',     0.510,     0.000,     0.000,     0.000,1.04000,     0,     1.700,   0.00730,   0.13500,   0.00000,   0.00000,1.00000,1,    0.5,     1.700,     0.000,   7,1.0000
 19083,'1 ',     1.497,     0.000,     0.000,     0.000,1.04000,     0,     6.900,   0.02570,   0.73700,   0.00000,   0.00000,1.00000,1,    1.6,     4.990,     0.000,   7,1.0000
 19084,'2 ',     1.350,    -1.500,    -1.500,    -1.500,1.04000,     0,     4.600,   0.02570,   0.73700,   0.00000,   0.00000,1.00000,1,    1.6,     4.500,     0.000,   7,1.0000
 19085,'1 ',     6.300,    -7.000,    -7.000,    -7.000,1.04000,     0,    23.824,   0.00220,   0.41940,   0.00000,   0.00000,1.00000,1,    6.6,    21.000,     0.000,   7,1.0000
 19101,'OH',    98.400,     0.000,    51.000,   -36.170,1.00000,  1911,   108.240,   0.00000,   0.14400,   0.00279,   0.11997,1.00000,0,   51.0,    98.400,    34.000,   1,1.0000
 19317,'SC',     0.000,    -6.000,     6.000,    -6.000,1.00000,  1931,     6.000,   0.00000,9999.00000,   0.00000,   0.00000,1.00000,1,    6.0,     0.000,     0.000,   1,1.0000
 19371,'1 ',     7.125,     0.000,     0.000,     0.000,1.00000,  1931,    29.780,   0.00220,   0.41940,   0.00000,   0.00000,1.00000,1,   11.0,    23.750,     0.000,   7,1.0000
 19372,'2 ',     3.315,     0.000,     0.000,     0.000,1.00000,  1931,    11.050,   0.00730,   0.13500,   0.00000,   0.00000,1.00000,1,   11.6,    11.050,     0.000,   7,1.0000
 19471,'1 ',    60.000,   -18.716,    94.000,   -50.000,1.00000,  1941,   153.000,   0.00000,   0.15300,   0.00000,   0.00000,1.00000,1,   75.0,   133.500,    60.000,   4,1.0000
 19472,'5 ',    58.274,     0.000,    38.000,   -23.000,1.00000,  1941,    66.625,   0.00200,   0.14450,   0.00000,   0.00000,1.00000,0,   41.0,    58.274,    19.700,   1,1.0000
 19473,'3 ',    58.274,     0.000,    40.000,   -23.000,1.00000,  1941,    66.625,   0.00200,   0.14450,   0.00000,   0.00000,1.00000,0,   41.0,    58.274,    19.700,   1,1.0000
 19601,'2 ',     1.755,     0.000,     0.000,     0.000,1.00000,     0,     6.500,   0.00000,   0.21900,   0.00000,   0.00000,1.00000,1,  100.0,     5.850,     0.000,   2,1.0000
 19771,'1 ',    12.750,     0.000,     0.000,     0.000,1.00000,  1971,    46.875,   0.00900,   0.16600,   0.00000,   0.00000,1.00000,1,    8.5,    42.500,     0.000,   7,1.0000
 19772,'TW',     2.550,    -1.466,     2.790,    -2.790,1.00000,  1971,     8.500,   0.00730,   0.13500,   0.00000,   0.00000,1.00000,1,    2.8,     8.500,     0.000,   7,1.0000
 19773,'TW',     9.000,    -5.161,     9.860,    -9.860,1.00000,  1971,    38.714,   0.00220,   0.41940,   0.00000,   0.00000,1.00000,1,    9.9,    30.000,     0.000,   7,1.0000
 19971,'1 ',     6.000,    -6.700,     6.700,    -6.700,1.00000,  1991,    20.700,   0.02570,   0.73700,   0.00000,   0.00000,1.00000,1,    6.7,    20.000,     0.000,   7,1.0000
 19972,'2 ',     0.690,     0.000,     0.000,     0.000,1.00000,  1991,     2.300,   0.02570,   0.73700,   0.00000,   0.00000,1.00000,1,    0.7,     2.300,     0.000,   7,1.0000
 19973,'3 ',     0.690,     0.000,     0.000,     0.000,1.00000,  1991,     2.300,   0.02570,   0.73700,   0.00000,   0.00000,1.00000,1,    1.1,     2.300,     0.000,   7,1.0000
 19974,'4 ',     4.830,    -4.000,     4.000,    -4.000,1.00000,  1991,    16.100,   0.02570,   0.73700,   0.00000,   0.00000,1.00000,1,    4.0,    16.100,     0.000,   7,1.0000
 20101,'OH',    35.000,     0.000,    21.000,   -14.000,1.00000,  2011,    41.200,   0.00000,   0.18000,   0.00000,   0.00000,1.00000,0,   21.0,    35.000,   -38.000,   1,1.0000
 21071,'2 ',     0.150,     0.000,     0.000,     0.000,1.04000,     0,     0.850,   0.00730,   0.13500,   0.00000,   0.00000,1.00000,1,    0.2,     0.500,     0.000,   7,1.0000
 21371,'TW',     8.550,    -4.980,     9.500,    -9.500,1.00000,  2131,    31.730,   0.00920,   0.16210,   0.00000,   0.00000,1.00000,1,    9.5,    28.500,     0.000,   7,1.0000
 21372,'2 ',     5.250,    -3.040,     5.800,    -5.800,1.00000,  2131,    23.380,   0.00920,   0.16210,   0.00000,   0.00000,1.00000,1,    5.8,    17.500,     0.000,   7,1.0000
 21871,'1 ',     0.510,     0.000,     0.000,     0.000,1.00000,     0,     1.700,   0.00730,   0.13500,   0.00000,   0.00000,1.00000,1,    0.5,     1.700,     0.000,   7,1.0000
 21872,'2 ',     0.750,    -0.990,    -0.990,    -1.280,1.00000,     0,     2.700,   0.03020,   0.86600,   0.00000,   0.00000,1.00000,1,    0.9,     2.500,     0.000,   7,1.0000
 21873,'1 ',     1.274,     0.000,     0.000,     0.000,1.00000,     0,     1.600,   0.02040,   0.33060,   0.00000,   0.00000,1.00000,0,  100.0,     1.274,     0.000,   1,1.0000
 21875,'1 ',     3.000,     0.000,     0.000,     0.000,1.00000,     0,     3.780,   0.00000,   0.15000,   0.00000,   0.00000,1.00000,1,  100.0,     3.000,     0.000,   1,1.0000
 22272,'DW',     5.100,    -4.034,     0.000,    -5.590,1.00000,     0,    16.000,   0.00900,   0.14800,   0.00000,   0.00000,1.00000,1,    5.3,    17.000,     0.000,   7,1.0000
 22273,'DW',     1.350,    -1.071,     0.000,    -1.480,1.00000,     0,     4.000,   0.02690,   0.76900,   0.00000,   0.00000,1.00000,1,    1.4,     4.500,     0.000,   7,1.0000
 22274,'2 ',     1.782,    -2.400,    -2.400,    -2.400,1.00000,     0,     5.940,   0.02040,   0.33060,   0.00000,   0.00000,1.00000,1,    1.9,     5.940,     0.000,   7,1.0000
 22275,'4 ',     1.275,     0.000,     0.000,     0.000,1.00000,     0,     4.250,   0.00730,   0.13500,   0.00000,   0.00000,1.00000,1,    1.3,     4.250,     0.000,   7,1.0000
 22276,'3 ',     1.785,     0.000,     0.000,     0.000,1.00000,     0,     6.680,   0.00920,   0.16210,   0.00000,   0.00000,1.00000,1,    1.9,     5.950,     0.000,   7,1.0000
 22277,'DW',     0.915,    -0.990,     0.000,    -0.990,1.00000,     0,     3.340,   0.00920,   0.16210,   0.00000,   0.00000,1.00000,1,    0.9,     3.050,     0.000,   7,1.0000
 22278,'1 ',     1.386,    -1.000,    -1.000,    -1.000,1.00000,     0,     4.620,   0.02040,   0.33060,   0.00000,   0.00000,1.00000,1,    1.4,     4.620,     0.000,   7,1.0000
 22292,'5 ',     6.000,     0.000,     0.000,     0.000,1.00000,     0,     6.000,   0.00000,   0.20000,   0.00000,   0.10000,1.00000,0,    2.0,     6.000,     0.000,   1,1.0000
 22371,'1 ',    17.850,     0.000,     0.000,     0.000,1.00000,  2231,    59.500,   0.00730,   0.13500,   0.00000,   0.00000,1.00000,1,   12.0,    59.500,     0.000,   7,1.0000
 22471,'1 ',     0.765,     0.000,     0.000,     0.000,1.04000,     0,     2.550,   0.00730,   0.13500,   0.00000,   0.00000,1.00000,1,    0.8,     2.550,     0.000,   7,1.0000
 22472,'2 ',     1.275,     0.000,     0.000,     0.000,1.04000,     0,     4.250,   0.00730,   0.13500,   0.00000,   0.00000,1.00000,1,    1.3,     4.250,     0.000,   7,1.0000
 22473,'1 ',     1.275,    -1.500,    -1.500,    -1.500,1.00000,     0,     4.250,   0.00730,   0.13500,   0.00000,   0.00000,1.00000,1,    1.3,     4.250,     0.000,   7,1.0000
...